
! loadshapes

New Loadshape.1 npts=24 interval=1 mult=(0.610897382422121	0.586227157930701	0.583430704695897	0.577909433637837	0.576945819421672	0.603618729824983	0.660501810429356	0.705171677843218	0.776959987296969	0.843342595129530	0.879595942001064	0.888725346053595	0.908307839343082	0.935718150358344	0.965077012617744	0.976324039804378	0.993509991708923	0.989814195742304	0.984771517840914	0.919952834783301	0.864804991426573	0.770438965137178	0.697671584646543	0.667986720948233)
New Loadshape.Residential npts=96 interval=1 mult=(0.426473604000000	0.426473604000000	0.411344663000000	0.350709520000000	0.351190797000000	0.327541808000000	0.317172798000000	0.292483768000000	0.280531291000000	0.278899134000000	0.274155409000000	0.259842345000000	0.248224278000000	0.243107090000000	0.238005335000000	0.244367914000000	0.249364987000000	0.263014914000000	0.247679563000000	0.248487457000000	0.257119242000000	0.266852552000000	0.264267946000000	0.291441760000000	0.320170526000000	0.348808679000000	0.347276287000000	0.352788779000000	0.355670024000000	0.362209415000000	0.348300788000000	0.314698934000000	0.341010627000000	0.329810617000000	0.315153658000000	0.334762466000000	0.320066571000000	0.341504651000000	0.319356070000000	0.339452972000000	0.339232743000000	0.354107205000000	0.349678640000000	0.349367392000000	0.402705585000000	0.467414878000000	0.422089153000000	0.434635732000000	0.396222607000000	0.393950765000000	0.395858846000000	0.403185853000000	0.393564340000000	0.391584866000000	0.394790306000000	0.418541217000000	0.427278350000000	0.411122012000000	0.405178893000000	0.396821039000000	0.423069965000000	0.420082348000000	0.448633527000000	0.465960046000000	0.463568753000000	0.444292418000000	0.480896022000000	0.511149045000000	0.534024964000000	0.576826214000000	0.613174182000000	0.745237811000000	0.792167559000000	0.881633902000000	0.927971966000000	0.922637042000000	0.916040623000000	0.926379910000000	0.957412399000000	1	0.975335635000000	0.952734326000000	0.939411641000000	0.925768103000000	0.921203845000000	0.890260868000000	0.870054215000000	0.819843805000000	0.777110348000000	0.727426916000000	0.715617813000000	0.680661640000000	0.619769399000000	0.593553403000000	0.524792613000000	0.524792613000000)
New Loadshape.Commercial npts=96 interval=1 mult=(0.0656953260000000	0.0656953260000000	0.0591831560000000	0.0566380010000000	0.0564687190000000	0.0565767470000000	0.0566427880000000	0.0566845200000000	0.0540076220000000	0.0565661830000000	0.0563340550000000	0.0544404690000000	0.0561155090000000	0.0537756750000000	0.0565462250000000	0.0579136870000000	0.0604041960000000	0.0671957420000000	0.0657264040000000	0.0635771150000000	0.0653676560000000	0.0659572100000000	0.0660922490000000	0.0617535320000000	0.0687225080000000	0.0782380550000000	0.0954882810000000	0.125569447000000	0.199029185000000	0.342593568000000	0.404833339000000	0.597588429000000	0.850862867000000	0.883256231000000	0.871445959000000	0.877747121000000	0.883596653000000	0.846172711000000	0.827986920000000	0.830214592000000	0.896437658000000	0.937201491000000	0.920238313000000	0.924545566000000	0.944766483000000	0.953842805000000	0.951224425000000	0.906631576000000	0.903452552000000	0.872893175000000	0.822708365000000	0.830113954000000	0.856104975000000	0.907881055000000	0.907846278000000	0.893479951000000	0.894227375000000	0.925716643000000	0.923835200000000	0.951924168000000	1	0.985597241000000	0.957089363000000	0.882761263000000	0.869582520000000	0.893662198000000	0.899015258000000	0.898190455000000	0.890373177000000	0.904572128000000	0.879043994000000	0.822324022000000	0.493051924000000	0.448207700000000	0.384810402000000	0.341377698000000	0.293145407000000	0.275746601000000	0.264273242000000	0.251590343000000	0.229764260000000	0.219325646000000	0.198861889000000	0.180419367000000	0.149899965000000	0.130141496000000	0.122505911000000	0.119840838000000	0.114183847000000	0.111463523000000	0.111200798000000	0.107397419000000	0.113152728000000	0.100171961000000	0.0835662490000000	0.0835662490000000)
New Loadshape.Industrial npts=96 interval=1 mult=(0.0226886850000000	0.0226886850000000	0.0223335210000000	0.0217798620000000	0.0220362330000000	0.0219555950000000	0.0217187020000000	0.0206841610000000	0.0220374910000000	0.0223249990000000	0.0223465820000000	0.0223586770000000	0.0220615790000000	0.0207189580000000	0.0213903720000000	0.0216928040000000	0.0218102850000000	0.0250732110000000	0.0219518750000000	0.0203695330000000	0.0207959800000000	0.0210606080000000	0.0198433960000000	0.0260099080000000	0.0720887690000000	0.174217151000000	0.303451465000000	0.326023466000000	0.540964717000000	0.687628092000000	0.792602223000000	0.878617498000000	0.871820511000000	0.877081773000000	0.919038139000000	0.941639314000000	0.902899397000000	0.869442032000000	0.892715405000000	0.901758199000000	0.960612766000000	1	0.976360149000000	0.798765181000000	0.599561974000000	0.471182394000000	0.385477417000000	0.473808398000000	0.570680814000000	0.577700080000000	0.593561045000000	0.688707665000000	0.783413819000000	0.832973505000000	0.832672255000000	0.745937889000000	0.664485381000000	0.695492648000000	0.691826850000000	0.614203298000000	0.563642303000000	0.586034597000000	0.586823162000000	0.587999813000000	0.581284082000000	0.569389552000000	0.534479896000000	0.475627723000000	0.416728798000000	0.385599332000000	0.329498019000000	0.201901320000000	0.129483205000000	0.0966466250000000	0.0760556700000000	0.0580947020000000	0.0352569530000000	0.0225248980000000	0.0225810920000000	0.0174124090000000	0.0165714110000000	0.0216566780000000	0.0212408220000000	0.0206187570000000	0.0166796930000000	0.0124278170000000	0.0120725910000000	0.0119213110000000	0.0115863480000000	0.0118739230000000	0.0126907720000000	0.0125394920000000	0.0111649100000000	0.0110136300000000	0.0108623500000000	0.0108623500000000)
new loadshape.PQmult npts=96 interval=1.0 Pmult=(0.416764931000000	0.523146513000000	0.592906517000000	0.625562752000000	0.651750674000000	0.685731764000000	0.734845892000000	0.796650687000000	0.863076851000000	0.929700128000000	0.984889787000000	1.02263803800000	1.03712288300000	1.02607501100000	0.991323543000000	0.938658158000000	0.873087302000000	0.801330271000000	0.736997804000000	0.682330355000000	0.643388423000000	0.615793763000000	0.587007182000000	0.534038070000000) Qmult=(0.480541668000000	0.358399449000000	0.315977979000000	0.363144946000000	0.455136655000000	0.564317601000000	0.668787829000000	0.756129391000000	0.822568075000000	0.866996391000000	0.891704333000000	0.902110445000000	0.902191417000000	0.902272388000000	0.902522386000000	0.908969450000000	0.923098659000000	0.939760983000000	0.959364945000000	0.971284211000000	0.966842048000000	0.935608447000000	0.859836836000000	0.728803537000000)